<?xml version="1.0" encoding="UTF-8"?>

<!-- generated on 2021-10-27 05:44:38 by Eclipse SUMO netedit Version 1.10.0
<configuration xmlns:xsi="http://www.w3.org/2001/XMLSchema-instance" xsi:noNamespaceSchemaLocation="http://sumo.dlr.de/xsd/netconvertConfiguration.xsd">

    <output>
        <output-file value="D:\Learn\4-1\Project\Dev\Traffic_Control\Demo%20Board\3-way\3way.map.net.xml"/>
    </output>

    <processing>
        <offset.disable-normalization value="true"/>
        <lefthand value="true"/>
    </processing>

    <junctions>
        <no-turnarounds value="true"/>
    </junctions>

    <report>
        <aggregate-warnings value="5"/>
    </report>

</configuration>
-->

<net version="1.9" junctionCornerDetail="5" lefthand="true" limitTurnSpeed="5.50" xmlns:xsi="http://www.w3.org/2001/XMLSchema-instance" xsi:noNamespaceSchemaLocation="http://sumo.dlr.de/xsd/net_file.xsd">

    <location netOffset="0.00,-0.00" convBoundary="0.00,100.00,200.00,200.00" origBoundary="10000000000.00,10000000000.00,-10000000000.00,-10000000000.00" projParameter="!"/>

    <edge id=":gneJ12_0" function="internal">
        <lane id=":gneJ12_0_0" index="0" speed="13.89" length="20.80" shape="110.40,95.20 89.60,95.20"/>
        <lane id=":gneJ12_0_1" index="1" speed="13.89" length="20.80" shape="110.40,98.40 89.60,98.40"/>
    </edge>
    <edge id=":gneJ12_2" function="internal">
        <lane id=":gneJ12_2_0" index="0" speed="9.26" length="6.96" shape="110.40,98.40 105.15,99.15 103.73,100.00"/>
    </edge>
    <edge id=":gneJ12_8" function="internal">
        <lane id=":gneJ12_8_0" index="0" speed="9.26" length="12.40" shape="103.73,100.00 101.40,101.40 99.15,105.15 98.40,110.40"/>
    </edge>
    <edge id=":gneJ12_3" function="internal">
        <lane id=":gneJ12_3_0" index="0" speed="6.51" length="9.03" shape="104.80,110.40 105.15,107.95 106.20,106.20 107.95,105.15 110.40,104.80"/>
    </edge>
    <edge id=":gneJ12_4" function="internal">
        <lane id=":gneJ12_4_0" index="0" speed="9.26" length="19.35" shape="101.60,110.40 100.85,105.15 98.60,101.40 94.85,99.15 89.60,98.40"/>
    </edge>
    <edge id=":gneJ12_5" function="internal">
        <lane id=":gneJ12_5_0" index="0" speed="6.51" length="9.03" shape="89.60,104.80 92.05,105.15 93.80,106.20 94.85,107.95 95.20,110.40"/>
    </edge>
    <edge id=":gneJ12_6" function="internal">
        <lane id=":gneJ12_6_0" index="0" speed="13.89" length="20.80" shape="89.60,104.80 110.40,104.80"/>
        <lane id=":gneJ12_6_1" index="1" speed="13.89" length="20.80" shape="89.60,101.60 110.40,101.60"/>
    </edge>

    <edge id="-gneE10" from="gneJ12" to="gneJ11" priority="-1">
        <lane id="-gneE10_0" index="0" speed="13.89" length="89.60" shape="89.60,95.20 0.00,95.20"/>
        <lane id="-gneE10_1" index="1" speed="13.89" length="89.60" shape="89.60,98.40 0.00,98.40"/>
    </edge>
    <edge id="-gneE11" from="gneJ13" to="gneJ12" priority="-1">
        <lane id="-gneE11_0" index="0" speed="13.89" length="89.60" shape="200.00,95.20 110.40,95.20"/>
        <lane id="-gneE11_1" index="1" speed="13.89" length="89.60" shape="200.00,98.40 110.40,98.40"/>
    </edge>
    <edge id="-gneE12" from="gneJ3" to="gneJ12" priority="-1">
        <lane id="-gneE12_0" index="0" speed="13.89" length="89.60" shape="104.80,200.00 104.80,110.40"/>
        <lane id="-gneE12_1" index="1" speed="13.89" length="89.60" shape="101.60,200.00 101.60,110.40"/>
    </edge>
    <edge id="gneE10" from="gneJ11" to="gneJ12" priority="-1">
        <lane id="gneE10_0" index="0" speed="13.89" length="89.60" shape="0.00,104.80 89.60,104.80"/>
        <lane id="gneE10_1" index="1" speed="13.89" length="89.60" shape="0.00,101.60 89.60,101.60"/>
    </edge>
    <edge id="gneE11" from="gneJ12" to="gneJ13" priority="-1">
        <lane id="gneE11_0" index="0" speed="13.89" length="89.60" shape="110.40,104.80 200.00,104.80"/>
        <lane id="gneE11_1" index="1" speed="13.89" length="89.60" shape="110.40,101.60 200.00,101.60"/>
    </edge>
    <edge id="gneE12" from="gneJ12" to="gneJ3" priority="-1">
        <lane id="gneE12_0" index="0" speed="13.89" length="89.60" shape="95.20,110.40 95.20,200.00"/>
        <lane id="gneE12_1" index="1" speed="13.89" length="89.60" shape="98.40,110.40 98.40,200.00"/>
    </edge>

    <junction id="gneJ11" type="dead_end" x="0.00" y="100.00" incLanes="-gneE10_0 -gneE10_1" intLanes="" shape="0.00,100.00 0.00,93.60 0.00,100.00"/>
    <junction id="gneJ12" type="priority" x="100.00" y="100.00" incLanes="-gneE11_0 -gneE11_1 -gneE12_0 -gneE12_1 gneE10_0 gneE10_1" intLanes=":gneJ12_0_0 :gneJ12_0_1 :gneJ12_8_0 :gneJ12_3_0 :gneJ12_4_0 :gneJ12_5_0 :gneJ12_6_0 :gneJ12_6_1" shape="110.40,93.60 110.40,106.40 108.18,106.84 107.40,107.40 106.84,108.18 106.51,109.18 106.40,110.40 93.60,110.40 93.16,108.18 92.60,107.40 91.82,106.84 90.82,106.51 89.60,106.40 89.60,93.60">
        <request index="0" response="00000000" foes="00010000" cont="0"/>
        <request index="1" response="00000000" foes="00010000" cont="0"/>
        <request index="2" response="11000000" foes="11010000" cont="1"/>
        <request index="3" response="11000000" foes="11000000" cont="0"/>
        <request index="4" response="11000111" foes="11000111" cont="0"/>
        <request index="5" response="00000000" foes="00000000" cont="0"/>
        <request index="6" response="00000000" foes="00011100" cont="0"/>
        <request index="7" response="00000000" foes="00011100" cont="0"/>
    </junction>
    <junction id="gneJ13" type="dead_end" x="200.00" y="100.00" incLanes="gneE11_0 gneE11_1" intLanes="" shape="200.00,100.00 200.00,106.40 200.00,100.00"/>
    <junction id="gneJ3" type="dead_end" x="100.00" y="200.00" incLanes="gneE12_0 gneE12_1" intLanes="" shape="100.00,200.00 93.60,200.00 100.00,200.00"/>

    <junction id=":gneJ12_8_0" type="internal" x="103.73" y="100.00" incLanes=":gneJ12_2_0 gneE10_0 gneE10_1" intLanes=":gneJ12_4_0 :gneJ12_6_0 :gneJ12_6_1"/>

    <connection from="-gneE11" to="-gneE10" fromLane="0" toLane="0" via=":gneJ12_0_0" dir="s" state="M"/>
    <connection from="-gneE11" to="-gneE10" fromLane="1" toLane="1" via=":gneJ12_0_1" dir="s" state="M"/>
    <connection from="-gneE11" to="gneE12" fromLane="1" toLane="1" via=":gneJ12_2_0" dir="r" state="m"/>
    <connection from="-gneE12" to="gneE11" fromLane="0" toLane="0" via=":gneJ12_3_0" dir="l" state="m"/>
    <connection from="-gneE12" to="-gneE10" fromLane="1" toLane="1" via=":gneJ12_4_0" dir="r" state="m"/>
    <connection from="gneE10" to="gneE12" fromLane="0" toLane="0" via=":gneJ12_5_0" dir="l" state="M"/>
    <connection from="gneE10" to="gneE11" fromLane="0" toLane="0" via=":gneJ12_6_0" dir="s" state="M"/>
    <connection from="gneE10" to="gneE11" fromLane="1" toLane="1" via=":gneJ12_6_1" dir="s" state="M"/>

    <connection from=":gneJ12_0" to="-gneE10" fromLane="0" toLane="0" dir="s" state="M"/>
    <connection from=":gneJ12_0" to="-gneE10" fromLane="1" toLane="1" dir="s" state="M"/>
    <connection from=":gneJ12_2" to="gneE12" fromLane="0" toLane="1" via=":gneJ12_8_0" dir="r" state="m"/>
    <connection from=":gneJ12_8" to="gneE12" fromLane="0" toLane="1" dir="r" state="M"/>
    <connection from=":gneJ12_3" to="gneE11" fromLane="0" toLane="0" dir="l" state="M"/>
    <connection from=":gneJ12_4" to="-gneE10" fromLane="0" toLane="1" dir="r" state="M"/>
    <connection from=":gneJ12_5" to="gneE12" fromLane="0" toLane="0" dir="l" state="M"/>
    <connection from=":gneJ12_6" to="gneE11" fromLane="0" toLane="0" dir="s" state="M"/>
    <connection from=":gneJ12_6" to="gneE11" fromLane="1" toLane="1" dir="s" state="M"/>

</net>
